123

Si      3.557153743   9.290246329   7.608643452    
Si      3.498621747   4.302347689   6.462767533    
Si      2.624213810   6.492845532   8.548989381    
Si      8.868354358  10.903099212   3.646686737    
Si      0.897805393   5.732382737  10.595484419
Si      6.504287528   4.271327691   6.424737535    
Si      8.977812351   2.792971798   4.994709640    
Si      7.236577446   1.669924385  12.741437933
Si      8.720908253   9.092636568  10.051991347
Si      8.219522397   3.183619028  10.359280605
Si      2.280628648   8.431017439  11.747527771
Si      7.604261452   7.310658473   6.242075548    
Si      8.654904246   6.075005255  10.827548335
Si      2.564426815   8.317216399   4.708903660    
Si      6.391676113   6.256900006  12.986730118
Si      6.336883967   8.380837169   8.829615575
Si     10.298949254   8.633074375   5.271701620    
Si      4.599963745   1.757537018  11.525692594
Si      4.562438254   6.794971708  10.760903314
Si      5.804703993   2.519829764   8.792280567
Si      3.307809761   1.406373898   7.528185454    
Si      0.371781973   2.080126850   7.042620489    
Si      1.773401222   0.310224913  11.194182035
Si      0.594407775   2.868732549   9.878221490
Si      9.489024313  10.452039247   7.385468467    
Si      9.786250301  10.752644184  12.532049407
Si      6.868286502   9.994396281   5.477161606    
O       3.161618772  10.847829219   7.996128421    
O       6.635313520   8.362417399   5.435198610    
O      10.142931693   5.615232330  11.237321613
O       7.154203484   5.747589586   6.162821556    
O       2.752083801   8.122382415   8.454243387    
O       9.337977043   9.667767705  11.430628759
O       6.116776561   3.910678718   7.991937422    
O       7.139168779   9.424664444   9.802351133
O       5.965696411   0.960986578  11.907072799
O       3.231782767   8.980847352   6.058624562    
O       1.888161961   9.767889291  10.807629290
O       8.885398674   7.475372017  10.035315298
O       3.360973757   6.969510498   4.265943692    
O       1.084139922   6.135906555   9.004228349    
O       9.066338344   1.231257911   4.523030674    
O       7.610278451   3.170894771   5.857775574    
O       7.648326058   2.985121158  11.864419794
O       4.787573360   2.544962746  10.101976309
O       9.844226287   9.643787306   4.057039707    
O       7.754623732   6.359032926  12.121978712
O       3.852536709   8.108894408  11.403019913
O       5.148464268   5.835152567  11.952686864
O       6.073699303   7.666780697  13.672865958
O       0.976544930   7.892330428   4.912948645    
O       9.138571340   7.524772457   5.677343593    
O       5.795969312   7.207529828   9.800522617
O       3.272097618   0.830515251  11.645512306
O       3.157277772   5.726278588   7.219133480    
O       7.440894461   7.743471439   7.811131434    
O       9.767384388   2.690027964  10.346004226
O       5.132170630   9.100828341   8.032421421    
O       8.078299263   4.778366933   9.985356940
O       1.538663441   6.991994102  11.414640847
O       3.540096699   5.960131818   9.811886135
O       8.553766222   0.705529541  12.786425027
O       0.505937537   0.417240922  12.247461814
O       9.111479340   0.276328980   2.089099849    
O       7.313943449   2.211407660   9.372248948
O       5.044148636   1.409392898   7.795341437    
O       3.335712759   3.094695776   7.582192455    
O       4.991326639   4.258279692   5.760176585    
O       1.838553867   1.405831899   6.672859517    
O       1.390006750   1.432817710  10.047218252
O       0.577120738   3.123818361   8.272967641
O      10.396399248   2.978596785   5.848727575    
O       1.347176652   4.116465773  10.640737517
O      10.592779234   9.588914307   6.560671524    
O       9.998624280   0.953293931   7.479848460    
O       9.513854878   9.843576626   8.872142857
O       8.024011419  10.362589254   6.630625524    
O       5.521138603  10.843499216   5.781775583    
O       7.347800469  10.406919249   3.968251713    
O       2.645334809   9.474154317   3.551790743    
O       8.966686353   3.820769724   3.726439731    
O       6.724684896   2.019681900  14.201645346
O      10.039365125   9.905865320  13.956117585
O       1.973277183   8.850967376  13.251593938
O       6.620070022   5.052915922  14.043338670
O       4.426856027   2.934049383  12.734482589
O       2.487587821   4.180955698   5.174499626    
H        3.306860761  10.169529267   3.700052733    
H        9.490641315   3.576586742   2.946661787    
H        5.564389600   0.360081974   6.602000524    
H        9.257692935   9.871115736  14.553232122
H        5.996615681   4.900023966  14.774841866
H        4.632413305   3.867917137  12.481323162
H        9.312719326  10.607859234   1.458329895    
H        2.924813789   6.102145557   4.371491684    
H        1.528862890   4.075869706   5.328443616    
Al       5.804387367   8.467589669  15.176536488
C        4.454912429   7.708676997  16.355600506
H        4.865099610   6.817826467  16.859202993
H        4.135396165   8.405382729  17.142285075
H        3.560311086   7.379228451  15.808329914
C        7.208731560   9.738274521  15.674381171
H        7.375531425  10.493993126  14.892001660
H        8.127174040   9.144681865  15.846574219
H        7.004481251  10.283935985  16.605787225
Al       5.014312640   2.285555410  14.596898568
C        4.550790837   3.740818139  15.849574918
C        4.092293334   0.554781065  14.769213190
H        4.082396605   4.629213127  15.391785430
H        3.796928799   3.350207813  16.552845007
H        5.391328494   4.079574269  16.480191750
H        4.464458921  -0.182816924  14.038249601
H        4.274915013   0.159747916  15.783839598
H        3.001218341   0.593287069  14.649877712
C        0.023301580   6.985612325  14.811189924
Al       0.852230295   8.761147373  14.625459793
C        1.289560232   9.816586970  16.227377347
H        0.737898686   6.271628109  15.255630472
H       -0.287894476   6.562386047  13.844086522
H       -0.860937717   6.978135757  15.470662300
H        2.283979404   9.605408351  16.642714884
H        1.240092442  10.900802772  16.042319568
H        0.560064524   9.591297287  17.024065794
